
  Mrv1909 10252019072D          

 42 45  0  0  0  0            999 V2000
    3.8883   -0.9076    0.0000 C   0  0  1  0  0  0  0  0  0  0  0  0
    3.1772   -0.4056    0.0000 O   0  0  0  0  0  0  0  0  0  0  0  0
    3.5954   -1.7442    0.0000 C   0  0  1  0  0  0  0  0  0  0  0  0
    2.5078   -0.9076    0.0000 C   0  0  1  0  0  0  0  0  0  0  0  0
    2.7589   -1.7442    0.0000 C   0  0  1  0  0  0  0  0  0  0  0  0
    4.1393   -2.4134    0.0000 O   0  0  0  0  0  0  0  0  0  0  0  0
    2.2987   -2.4134    0.0000 O   0  0  0  0  0  0  0  0  0  0  0  0
    4.5993   -1.3259    0.0000 C   0  0  0  0  0  0  0  0  0  0  0  0
    5.3523   -1.7442    0.0000 N   0  0  0  0  0  0  0  0  0  0  0  0
    1.7968   -0.4893    0.0000 C   0  0  0  0  0  0  0  0  0  0  0  0
    1.0857   -0.9076    0.0000 O   0  0  0  0  0  0  0  0  0  0  0  0
    0.3577   -0.4952    0.0000 P   0  0  1  0  0  0  0  0  0  0  0  0
   -0.3667   -0.9135    0.0000 N   0  0  0  0  0  0  0  0  0  0  0  0
   -1.1024   -0.4887    0.0000 C   0  0  2  0  0  0  0  0  0  0  0  0
   -1.8173   -0.9015    0.0000 C   0  0  0  0  0  0  0  0  0  0  0  0
   -1.1025    0.3471    0.0000 C   0  0  0  0  0  0  0  0  0  0  0  0
   -2.5266   -0.4920    0.0000 O   0  0  0  0  0  0  0  0  0  0  0  0
   -1.8174   -1.7439    0.0000 O   0  0  0  0  0  0  0  0  0  0  0  0
   -3.2386   -0.9033    0.0000 C   0  0  0  0  0  0  0  0  0  0  0  0
   -3.9493   -0.4929    0.0000 C   0  0  0  0  0  0  0  0  0  0  0  0
   -4.6605   -0.9037    0.0000 C   0  0  0  0  0  0  0  0  0  0  0  0
   -3.9495    0.3471    0.0000 C   0  0  0  0  0  0  0  0  0  0  0  0
   -4.6622    0.7585    0.0000 C   0  0  0  0  0  0  0  0  0  0  0  0
   -5.3716   -0.4932    0.0000 C   0  0  0  0  0  0  0  0  0  0  0  0
    4.3365   -0.2132    0.0000 C   0  0  0  0  0  0  0  0  0  0  0  0
    4.0386    0.5562    0.0000 N   0  0  0  0  0  0  0  0  0  0  0  0
    5.1602   -0.1677    0.0000 C   0  0  0  0  0  0  0  0  0  0  0  0
    4.6785    1.0770    0.0000 C   0  0  0  0  0  0  0  0  0  0  0  0
    5.3716    0.6297    0.0000 C   0  0  0  0  0  0  0  0  0  0  0  0
    3.2677    0.8496    0.0000 N   0  0  0  0  0  0  0  0  0  0  0  0
    3.1365    1.6641    0.0000 C   0  0  0  0  0  0  0  0  0  0  0  0
    4.5471    1.8915    0.0000 C   0  0  0  0  0  0  0  0  0  0  0  0
    3.7761    2.1850    0.0000 N   0  0  0  0  0  0  0  0  0  0  0  0
    5.1880    2.4134    0.0000 N   0  0  0  0  0  0  0  0  0  0  0  0
   -0.0575    0.2174    0.0000 O   0  0  0  0  0  0  0  0  0  0  0  0
    0.7673    0.2209    0.0000 O   0  0  0  0  0  0  0  0  0  0  0  0
    0.3527    0.9349    0.0000 C   0  0  0  0  0  0  0  0  0  0  0  0
   -0.0626    1.6477    0.0000 C   0  0  0  0  0  0  0  0  0  0  0  0
    1.1778    0.9383    0.0000 C   0  0  0  0  0  0  0  0  0  0  0  0
    0.3469    2.3639    0.0000 C   0  0  0  0  0  0  0  0  0  0  0  0
    1.5873    1.6544    0.0000 C   0  0  0  0  0  0  0  0  0  0  0  0
    1.1719    2.3672    0.0000 C   0  0  0  0  0  0  0  0  0  0  0  0
  1  2  1  0  0  0  0
  1  3  1  0  0  0  0
  2  4  1  0  0  0  0
  3  5  1  0  0  0  0
  3  6  1  6  0  0  0
  5  7  1  6  0  0  0
  4  5  1  0  0  0  0
  1  8  1  6  0  0  0
  8  9  3  0  0  0  0
 10 11  1  0  0  0  0
  4 10  1  1  0  0  0
 11 12  1  0  0  0  0
 12 13  1  6  0  0  0
 13 14  1  0  0  0  0
 14 15  1  0  0  0  0
 14 16  1  6  0  0  0
 15 17  1  0  0  0  0
 15 18  2  0  0  0  0
 17 19  1  0  0  0  0
 19 20  1  0  0  0  0
 20 21  1  0  0  0  0
 20 22  1  0  0  0  0
 22 23  1  0  0  0  0
 21 24  1  0  0  0  0
  1 25  1  1  0  0  0
 25 26  1  0  0  0  0
 25 27  2  0  0  0  0
 27 29  1  0  0  0  0
 28 29  2  0  0  0  0
 26 30  1  0  0  0  0
 26 28  1  0  0  0  0
 30 31  2  0  0  0  0
 28 32  1  0  0  0  0
 31 33  1  0  0  0  0
 32 33  2  0  0  0  0
 32 34  1  0  0  0  0
 12 35  1  1  0  0  0
 12 36  2  0  0  0  0
 35 37  1  0  0  0  0
 37 38  1  0  0  0  0
 37 39  2  0  0  0  0
 38 40  2  0  0  0  0
 39 41  1  0  0  0  0
 40 42  1  0  0  0  0
 41 42  2  0  0  0  0
M  END
